155586
  -OEChem-08162616252D

 37 39  0     1  0  0  0  0  0999 V2000
    6.4783   -1.0720    0.0000 O   0  0  0  0  0  0  0  0  0  0  0  0
    8.0619   -0.2673    0.0000 O   0  0  0  0  0  0  0  0  0  0  0  0
    3.8000   -0.7673    0.0000 C   0  0  2  0  0  0  0  0  0  0  0  0
    5.5321    0.2327    0.0000 C   0  0  2  0  0  0  0  0  0  0  0  0
    3.8000    0.2327    0.0000 C   0  0  1  0  0  0  0  0  0  0  0  0
    5.5321   -0.7673    0.0000 C   0  0  1  0  0  0  0  0  0  0  0  0
    4.6660    0.7327    0.0000 C   0  0  0  0  0  0  0  0  0  0  0  0
    4.6660   -1.2673    0.0000 C   0  0  0  0  0  0  0  0  0  0  0  0
    6.4783    0.5374    0.0000 C   0  0  1  0  0  0  0  0  0  0  0  0
    2.9061    0.7674    0.0000 C   0  0  0  0  0  0  0  0  0  0  0  0
    3.8000   -1.7673    0.0000 C   0  0  0  0  0  0  0  0  0  0  0  0
    2.9061   -1.3020    0.0000 C   0  0  0  0  0  0  0  0  0  0  0  0
    7.0619   -0.2673    0.0000 C   0  0  0  0  0  0  0  0  0  0  0  0
    6.7889    1.4880    0.0000 C   0  0  0  0  0  0  0  0  0  0  0  0
    2.0000    0.2535    0.0000 C   0  0  0  0  0  0  0  0  0  0  0  0
    2.0000   -0.7881    0.0000 C   0  0  0  0  0  0  0  0  0  0  0  0
    2.9176    1.7673    0.0000 C   0  0  0  0  0  0  0  0  0  0  0  0
    5.6220    1.0779    0.0000 H   0  0  0  0  0  0  0  0  0  0  0  0
    3.8066    1.0827    0.0000 H   0  0  0  0  0  0  0  0  0  0  0  0
    5.6220   -1.6125    0.0000 H   0  0  0  0  0  0  0  0  0  0  0  0
    5.0646    1.2077    0.0000 H   0  0  0  0  0  0  0  0  0  0  0  0
    4.2675    1.2077    0.0000 H   0  0  0  0  0  0  0  0  0  0  0  0
    4.2675   -1.7422    0.0000 H   0  0  0  0  0  0  0  0  0  0  0  0
    5.0646   -1.7422    0.0000 H   0  0  0  0  0  0  0  0  0  0  0  0
    7.0908    0.6336    0.0000 H   0  0  0  0  0  0  0  0  0  0  0  0
    3.1800   -1.7673    0.0000 H   0  0  0  0  0  0  0  0  0  0  0  0
    3.8000   -2.3873    0.0000 H   0  0  0  0  0  0  0  0  0  0  0  0
    4.4200   -1.7673    0.0000 H   0  0  0  0  0  0  0  0  0  0  0  0
    2.9132   -1.9219    0.0000 H   0  0  0  0  0  0  0  0  0  0  0  0
    7.3783    1.2953    0.0000 H   0  0  0  0  0  0  0  0  0  0  0  0
    6.9816    2.0773    0.0000 H   0  0  0  0  0  0  0  0  0  0  0  0
    6.1996    1.6806    0.0000 H   0  0  0  0  0  0  0  0  0  0  0  0
    1.4643    0.5656    0.0000 H   0  0  0  0  0  0  0  0  0  0  0  0
    1.4643   -1.1002    0.0000 H   0  0  0  0  0  0  0  0  0  0  0  0
    3.5376    1.7601    0.0000 H   0  0  0  0  0  0  0  0  0  0  0  0
    2.9248    2.3873    0.0000 H   0  0  0  0  0  0  0  0  0  0  0  0
    2.2977    1.7745    0.0000 H   0  0  0  0  0  0  0  0  0  0  0  0
  1  6  1  0  0  0  0
  1 13  1  0  0  0  0
  2 13  2  0  0  0  0
  3  5  1  0  0  0  0
  3  8  1  0  0  0  0
  3 11  1  6  0  0  0
  3 12  1  0  0  0  0
  4  6  1  0  0  0  0
  4  7  1  0  0  0  0
  4  9  1  0  0  0  0
  4 18  1  1  0  0  0
  5  7  1  0  0  0  0
  5 10  1  0  0  0  0
  5 19  1  1  0  0  0
  6  8  1  0  0  0  0
  6 20  1  1  0  0  0
  7 21  1  0  0  0  0
  7 22  1  0  0  0  0
  8 23  1  0  0  0  0
  8 24  1  0  0  0  0
  9 13  1  0  0  0  0
  9 14  1  6  0  0  0
  9 25  1  0  0  0  0
 10 15  2  0  0  0  0
 10 17  1  0  0  0  0
 11 26  1  0  0  0  0
 11 27  1  0  0  0  0
 11 28  1  0  0  0  0
 12 16  2  0  0  0  0
 12 29  1  0  0  0  0
 14 30  1  0  0  0  0
 14 31  1  0  0  0  0
 14 32  1  0  0  0  0
 15 16  1  0  0  0  0
 15 33  1  0  0  0  0
 16 34  1  0  0  0  0
 17 35  1  0  0  0  0
 17 36  1  0  0  0  0
 17 37  1  0  0  0  0
M  END
> <PUBCHEM_COMPOUND_CID>
155586

> <PUBCHEM_COMPOUND_CANONICALIZED>
1

> <PUBCHEM_CACTVS_COMPLEXITY>
421

> <PUBCHEM_CACTVS_HBOND_ACCEPTOR>
2

> <PUBCHEM_CACTVS_HBOND_DONOR>
0

> <PUBCHEM_CACTVS_ROTATABLE_BOND>
0

> <PUBCHEM_CACTVS_SUBSKEYS>
AAADceBwMAAAAAAAAAAAAAAAAAAAASAAAAAwQAAAAAAAAEiAAAAAGgAAAAAADxSggAICCAAABACIAiDSCAAAAAAgAAAICAEAAAgIABIAAQACAAAEgAAIgAOKyPCPgAAAAAAAAADAAAYAADAAAAAAAAAAAA==

> <PUBCHEM_IUPAC_OPENEYE_NAME>
(3S,3aR,4aS,8aS,9aR)-3,5,8a-trimethyl-3,3a,4,4a,9,9a-hexahydrobenzo[f]benzofuran-2-one

> <PUBCHEM_IUPAC_CAS_NAME>
(3S,3aR,4aS,8aS,9aR)-3,5,8a-trimethyl-3,3a,4,4a,9,9a-hexahydrobenzo[f]benzofuran-2-one

> <PUBCHEM_IUPAC_NAME_MARKUP>
(3<I>S</I>,3<I>a</I><I>R</I>,4<I>a</I><I>S</I>,8<I>a</I><I>S</I>,9<I>a</I><I>R</I>)-3,5,8<I>a</I>-trimethyl-3,3<I>a</I>,4,4<I>a</I>,9,9<I>a</I>-hexahydrobenzo[f][1]benzofuran-2-one

> <PUBCHEM_IUPAC_NAME>
(3S,3aR,4aS,8aS,9aR)-3,5,8a-trimethyl-3,3a,4,4a,9,9a-hexahydrobenzo[f][1]benzofuran-2-one

> <PUBCHEM_IUPAC_SYSTEMATIC_NAME>
(3S,3aR,4aS,8aS,9aR)-3,5,8a-trimethyl-3,3a,4,4a,9,9a-hexahydrobenzo[f][1]benzofuran-2-one

> <PUBCHEM_IUPAC_TRADITIONAL_NAME>
(3S,3aR,4aS,8aS,9aR)-3,5,8a-trimethyl-3,3a,4,4a,9,9a-hexahydrobenzo[f]benzofuran-2-one

> <PUBCHEM_IUPAC_INCHI>
InChI=1S/C15H20O2/c1-9-5-4-6-15(3)8-13-11(7-12(9)15)10(2)14(16)17-13/h4-6,10-13H,7-8H2,1-3H3/t10-,11+,12-,13+,15+/m0/s1

> <PUBCHEM_IUPAC_INCHIKEY>
BMCOUTUQAWFTFQ-GGAZOKNXSA-N

> <PUBCHEM_XLOGP3_AA>
3.2

> <PUBCHEM_EXACT_MASS>
232.146329876

> <PUBCHEM_MOLECULAR_FORMULA>
C15H20O2

> <PUBCHEM_MOLECULAR_WEIGHT>
232.32

> <PUBCHEM_SMILES>
C[C@H]1[C@H]2C[C@H]3C(=CC=C[C@@]3(C[C@H]2OC1=O)C)C

> <PUBCHEM_CONNECTIVITY_SMILES>
CC1C2CC3C(=CC=CC3(CC2OC1=O)C)C

> <PUBCHEM_CACTVS_TPSA>
26.3

> <PUBCHEM_MONOISOTOPIC_WEIGHT>
232.146329876

> <PUBCHEM_TOTAL_CHARGE>
0

> <PUBCHEM_HEAVY_ATOM_COUNT>
17

> <PUBCHEM_ATOM_DEF_STEREO_COUNT>
5

> <PUBCHEM_ATOM_UDEF_STEREO_COUNT>
0

> <PUBCHEM_BOND_DEF_STEREO_COUNT>
0

> <PUBCHEM_BOND_UDEF_STEREO_COUNT>
0

> <PUBCHEM_ISOTOPIC_ATOM_COUNT>
0

> <PUBCHEM_COMPONENT_COUNT>
1

> <PUBCHEM_CACTVS_TAUTO_COUNT>
-1

> <PUBCHEM_COORDINATE_TYPE>
1
5
255

> <PUBCHEM_BONDANNOTATIONS>
3  11  6
4  18  5
5  19  5
6  20  5
9  14  6

$$$$
